D68EV3CPROA-x1084_0A
     RDKit          3D

 25 25  0  0  0  0  0  0  0  0999 V2000
   -5.1360   -6.6140   -3.4210 N   0  0  0  0  0  0  0  0  0  0  0  0
   -6.7990   -4.5530   -3.9980 C   0  0  0  0  0  0  0  0  0  0  0  0
   -6.9450   -6.9160   -5.0510 O   0  0  0  0  0  0  0  0  0  0  0  0
   -4.6800   -7.3750   -2.3030 C   0  0  0  0  0  0  0  0  0  0  0  0
   -3.3580   -7.2310   -1.9000 C   0  0  0  0  0  0  0  0  0  0  0  0
   -2.9620   -7.6590   -0.6440 C   0  0  0  0  0  0  0  0  0  0  0  0
   -3.8640   -8.2490    0.2280 C   0  0  0  0  0  0  0  0  0  0  0  0
   -3.4810   -8.5200    1.6360 C   0  0  0  0  0  0  0  0  0  0  0  0
   -5.1600   -8.4660   -0.2150 C   0  0  0  0  0  0  0  0  0  0  0  0
   -5.5680   -8.0430   -1.4660 C   0  0  0  0  0  0  0  0  0  0  0  0
   -3.2780   -7.2170    2.2860 N   0  0  0  0  0  0  0  0  0  0  0  0
   -7.4920   -6.6520   -2.6630 O   0  0  0  0  0  0  0  0  0  0  0  0
   -6.6900   -6.2900   -3.7910 S   0  0  0  0  0  0  0  0  0  0  0  0
   -4.4164   -6.2343   -4.0526 H   0  0  0  0  0  0  0  0  0  0  0  0
   -6.8295   -4.0674   -3.0115 H   0  0  0  0  0  0  0  0  0  0  0  0
   -5.9216   -4.1945   -4.5562 H   0  0  0  0  0  0  0  0  0  0  0  0
   -7.7143   -4.3070   -4.5562 H   0  0  0  0  0  0  0  0  0  0  0  0
   -2.6238   -6.7756   -2.5808 H   0  0  0  0  0  0  0  0  0  0  0  0
   -1.9149   -7.5288   -0.3331 H   0  0  0  0  0  0  0  0  0  0  0  0
   -4.2826   -9.0751    2.1452 H   0  0  0  0  0  0  0  0  0  0  0  0
   -2.5658   -9.1284    1.6831 H   0  0  0  0  0  0  0  0  0  0  0  0
   -5.8757   -8.9837    0.4405 H   0  0  0  0  0  0  0  0  0  0  0  0
   -6.5980   -8.2351   -1.8008 H   0  0  0  0  0  0  0  0  0  0  0  0
   -3.2967   -7.3369    3.3088 H   0  0  0  0  0  0  0  0  0  0  0  0
   -2.3666   -6.8301    2.0023 H   0  0  0  0  0  0  0  0  0  0  0  0
  4  1  1  0
  5  4  2  0
  6  5  1  0
  7  6  2  0
  8  7  1  0
  9  7  1  0
 10  9  2  0
 10  4  1  0
 11  8  1  0
 13 12  2  0
 13  3  2  0
 13  2  1  0
 13  1  1  0
  1 14  1  0
  2 15  1  0
  2 16  1  0
  2 17  1  0
  5 18  1  0
  6 19  1  0
  8 20  1  0
  8 21  1  0
  9 22  1  0
 10 23  1  0
 11 24  1  0
 11 25  1  0
M  END
