D68EV3CPROA-x2135_0A
     RDKit          3D

 24 26  0  0  0  0  0  0  0  0999 V2000
  -11.0050   -2.2540   -5.2650 N   0  0  0  0  0  0  0  0  0  0  0  0
  -11.1310   -3.1790   -6.2060 C   0  0  0  0  0  0  0  0  0  0  0  0
  -12.1350   -3.2810   -6.9140 O   0  0  0  0  0  0  0  0  0  0  0  0
   -9.9510   -4.1010   -6.3890 C   0  0  2  0  0  0  0  0  0  0  0  0
   -8.7670   -3.4540   -7.0880 C   0  0  1  0  0  0  0  0  0  0  0  0
   -7.3640   -4.0720   -6.9720 C   0  0  2  0  0  0  0  0  0  0  0  0
   -6.7470   -4.0100   -8.3730 C   0  0  0  0  0  0  0  0  0  0  0  0
   -7.5260   -5.0880   -9.1340 C   0  0  0  0  0  0  0  0  0  0  0  0
   -8.5070   -5.6070   -8.0750 C   0  0  1  0  0  0  0  0  0  0  0  0
   -7.6210   -5.5780   -6.8260 C   0  0  0  0  0  0  0  0  0  0  0  0
   -9.5550   -4.5010   -7.8030 C   0  0  1  0  0  0  0  0  0  0  0  0
  -10.1458   -2.2091   -4.6987 H   0  0  0  0  0  0  0  0  0  0  0  0
  -11.7663   -1.5801   -5.1001 H   0  0  0  0  0  0  0  0  0  0  0  0
  -10.1387   -4.6658   -5.4639 H   0  0  0  0  0  0  0  0  0  0  0  0
   -8.4924   -2.3896   -7.1273 H   0  0  0  0  0  0  0  0  0  0  0  0
   -6.7655   -3.5958   -6.1814 H   0  0  0  0  0  0  0  0  0  0  0  0
   -6.8944   -3.0192   -8.8275 H   0  0  0  0  0  0  0  0  0  0  0  0
   -5.6592   -4.1732   -8.3778 H   0  0  0  0  0  0  0  0  0  0  0  0
   -8.0612   -4.6581   -9.9935 H   0  0  0  0  0  0  0  0  0  0  0  0
   -6.8833   -5.8746   -9.5560 H   0  0  0  0  0  0  0  0  0  0  0  0
   -8.9877   -6.5596   -8.3424 H   0  0  0  0  0  0  0  0  0  0  0  0
   -8.1537   -5.8464   -5.9018 H   0  0  0  0  0  0  0  0  0  0  0  0
   -6.7647   -6.2651   -6.7587 H   0  0  0  0  0  0  0  0  0  0  0  0
  -10.2158   -4.6756   -8.6649 H   0  0  0  0  0  0  0  0  0  0  0  0
  2  1  1  0
  3  2  2  0
  4  2  1  0
  5  4  1  0
  5  6  1  0
  6  7  1  0
  8  7  1  0
  9  8  1  0
 10  9  1  0
 10  6  1  0
 11  9  1  0
 11  5  1  0
 11  4  1  0
  1 12  1  0
  1 13  1  0
  4 14  1  1
  5 15  1  6
  6 16  1  1
  7 17  1  0
  7 18  1  0
  8 19  1  0
  8 20  1  0
  9 21  1  6
 10 22  1  0
 10 23  1  0
 11 24  1  6
M  END
