D68EV3CPROA-x1594_0A
     RDKit          3D

 16 17  0  0  0  0  0  0  0  0999 V2000
   -7.1290   -6.7810   -7.5670 N   0  0  0  0  0  0  0  0  0  0  0  0
   -7.4260   -5.5390   -7.9640 C   0  0  0  0  0  0  0  0  0  0  0  0
   -8.4810   -3.6240   -8.1510 C   0  0  0  0  0  0  0  0  0  0  0  0
   -9.5180   -2.6910   -7.9110 C   0  0  0  0  0  0  0  0  0  0  0  0
  -10.5390   -3.0250   -7.0760 C   0  0  0  0  0  0  0  0  0  0  0  0
  -10.5780   -4.2850   -6.4400 C   0  0  0  0  0  0  0  0  0  0  0  0
   -9.5860   -5.1790   -6.6460 C   0  0  0  0  0  0  0  0  0  0  0  0
   -6.7530   -4.7950   -8.8300 N   0  0  0  0  0  0  0  0  0  0  0  0
   -7.4220   -3.5740   -8.9490 N   0  0  0  0  0  0  0  0  0  0  0  0
   -8.5440   -4.8510   -7.4960 N   0  0  0  0  0  0  0  0  0  0  0  0
   -7.7318   -7.2612   -6.8837 H   0  0  0  0  0  0  0  0  0  0  0  0
   -6.2975   -7.2573   -7.9445 H   0  0  0  0  0  0  0  0  0  0  0  0
   -9.4986   -1.7037   -8.3957 H   0  0  0  0  0  0  0  0  0  0  0  0
  -11.3473   -2.3016   -6.8934 H   0  0  0  0  0  0  0  0  0  0  0  0
  -11.4172   -4.5392   -5.7758 H   0  0  0  0  0  0  0  0  0  0  0  0
   -9.6063   -6.1573   -6.1434 H   0  0  0  0  0  0  0  0  0  0  0  0
  2  1  1  0
  4  3  1  0
  5  4  2  0
  6  5  1  0
  7  6  2  0
  8  2  2  0
  9  8  1  0
  9  3  2  0
 10  2  1  0
 10  7  1  0
 10  3  1  0
  1 11  1  0
  1 12  1  0
  4 13  1  0
  5 14  1  0
  6 15  1  0
  7 16  1  0
M  END
